663

O1   0.00000000   0.00000000   3.07500000
H1   0.00000000   0.75668992   3.66089194
H1   0.00000000   -0.75668992   3.66089194
C   1.22975607   0.71000000   0.00000000
C   0.00000000   1.42000000   0.00000000
C   -1.22975607   0.71000000   0.00000000
C   -1.22975607   -0.71000000   0.00000000
C   -0.00000000   -1.42000000   0.00000000
C   1.22975607   -0.71000000   0.00000000
C   3.68926822   0.71000000   0.00000000
C   2.45951215   1.42000000   0.00000000
C   2.45951215   -1.42000000   0.00000000
C   3.68926822   -0.71000000   0.00000000
C   2.45951215   2.84000000   0.00000000
C   1.22975607   3.55000000   0.00000000
C   0.00000000   2.84000000   0.00000000
C   -1.22975607   3.55000000   0.00000000
C   -2.45951215   2.84000000   0.00000000
C   -2.45951215   1.42000000   0.00000000
C   -3.68926822   0.71000000   0.00000000
C   -3.68926822   -0.71000000   0.00000000
C   -2.45951215   -1.42000000   0.00000000
C   -2.45951215   -2.84000000   0.00000000
C   -1.22975607   -3.55000000   0.00000000
C   -0.00000000   -2.84000000   0.00000000
C   1.22975607   -3.55000000   0.00000000
C   2.45951215   -2.84000000   0.00000000
C   6.14878037   0.71000000   0.00000000
C   4.91902429   1.42000000   0.00000000
C   4.91902429   -1.42000000   0.00000000
C   6.14878037   -0.71000000   0.00000000
C   4.91902429   2.84000000   0.00000000
C   3.68926822   3.55000000   0.00000000
C   3.68926822   -3.55000000   0.00000000
C   4.91902429   -2.84000000   0.00000000
C   3.68926822   4.97000000   0.00000000
C   2.45951215   5.68000000   0.00000000
C   1.22975607   4.97000000   0.00000000
C   0.00000000   5.68000000   0.00000000
C   -1.22975607   4.97000000   0.00000000
C   -2.45951215   5.68000000   0.00000000
C   -3.68926822   4.97000000   0.00000000
C   -3.68926822   3.55000000   0.00000000
C   -4.91902429   2.84000000   0.00000000
C   -4.91902429   1.42000000   0.00000000
C   -6.14878037   0.71000000   0.00000000
C   -6.14878037   -0.71000000   0.00000000
C   -4.91902429   -1.42000000   0.00000000
C   -4.91902429   -2.84000000   0.00000000
C   -3.68926822   -3.55000000   0.00000000
C   -3.68926822   -4.97000000   0.00000000
C   -2.45951215   -5.68000000   0.00000000
C   -1.22975607   -4.97000000   0.00000000
C   -0.00000000   -5.68000000   0.00000000
C   1.22975607   -4.97000000   0.00000000
C   2.45951215   -5.68000000   0.00000000
C   3.68926822   -4.97000000   0.00000000
C   8.60829251   0.71000000   0.00000000
C   7.37853644   1.42000000   0.00000000
C   7.37853644   -1.42000000   0.00000000
C   8.60829251   -0.71000000   0.00000000
C   7.37853644   2.84000000   0.00000000
C   6.14878037   3.55000000   0.00000000
C   6.14878037   -3.55000000   0.00000000
C   7.37853644   -2.84000000   0.00000000
C   6.14878037   4.97000000   0.00000000
C   4.91902429   5.68000000   0.00000000
C   4.91902429   -5.68000000   0.00000000
C   6.14878037   -4.97000000   0.00000000
C   4.91902429   7.10000000   0.00000000
C   3.68926822   7.81000000   0.00000000
C   2.45951215   7.10000000   0.00000000
C   1.22975607   7.81000000   0.00000000
C   0.00000000   7.10000000   0.00000000
C   -1.22975607   7.81000000   0.00000000
C   -2.45951215   7.10000000   0.00000000
C   -3.68926822   7.81000000   0.00000000
C   -4.91902429   7.10000000   0.00000000
C   -4.91902429   5.68000000   0.00000000
C   -6.14878037   4.97000000   0.00000000
C   -6.14878037   3.55000000   0.00000000
C   -7.37853644   2.84000000   0.00000000
C   -7.37853644   1.42000000   0.00000000
C   -8.60829251   0.71000000   0.00000000
C   -8.60829251   -0.71000000   0.00000000
C   -7.37853644   -1.42000000   0.00000000
C   -7.37853644   -2.84000000   0.00000000
C   -6.14878037   -3.55000000   0.00000000
C   -6.14878037   -4.97000000   0.00000000
C   -4.91902429   -5.68000000   0.00000000
C   -4.91902429   -7.10000000   0.00000000
C   -3.68926822   -7.81000000   0.00000000
C   -2.45951215   -7.10000000   0.00000000
C   -1.22975607   -7.81000000   0.00000000
C   -0.00000000   -7.10000000   0.00000000
C   1.22975607   -7.81000000   0.00000000
C   2.45951215   -7.10000000   0.00000000
C   3.68926822   -7.81000000   0.00000000
C   4.91902429   -7.10000000   0.00000000
C   11.06780466   0.71000000   0.00000000
C   9.83804859   1.42000000   0.00000000
C   9.83804859   -1.42000000   0.00000000
C   11.06780466   -0.71000000   0.00000000
C   9.83804859   2.84000000   0.00000000
C   8.60829251   3.55000000   0.00000000
C   8.60829251   -3.55000000   0.00000000
C   9.83804859   -2.84000000   0.00000000
C   8.60829251   4.97000000   0.00000000
C   7.37853644   5.68000000   0.00000000
C   7.37853644   -5.68000000   0.00000000
C   8.60829251   -4.97000000   0.00000000
C   7.37853644   7.10000000   0.00000000
C   6.14878037   7.81000000   0.00000000
C   6.14878037   -7.81000000   0.00000000
C   7.37853644   -7.10000000   0.00000000
C   6.14878037   9.23000000   0.00000000
C   4.91902429   9.94000000   0.00000000
C   3.68926822   9.23000000   0.00000000
C   2.45951215   9.94000000   0.00000000
C   1.22975607   9.23000000   0.00000000
C   0.00000000   9.94000000   0.00000000
C   -1.22975607   9.23000000   0.00000000
C   -2.45951215   9.94000000   0.00000000
C   -3.68926822   9.23000000   0.00000000
C   -4.91902429   9.94000000   0.00000000
C   -6.14878037   9.23000000   0.00000000
C   -6.14878037   7.81000000   0.00000000
C   -7.37853644   7.10000000   0.00000000
C   -7.37853644   5.68000000   0.00000000
C   -8.60829251   4.97000000   0.00000000
C   -8.60829251   3.55000000   0.00000000
C   -9.83804859   2.84000000   0.00000000
C   -9.83804859   1.42000000   0.00000000
C   -11.06780466   0.71000000   0.00000000
C   -11.06780466   -0.71000000   0.00000000
C   -9.83804859   -1.42000000   0.00000000
C   -9.83804859   -2.84000000   0.00000000
C   -8.60829251   -3.55000000   0.00000000
C   -8.60829251   -4.97000000   0.00000000
C   -7.37853644   -5.68000000   0.00000000
C   -7.37853644   -7.10000000   0.00000000
C   -6.14878037   -7.81000000   0.00000000
C   -6.14878037   -9.23000000   0.00000000
C   -4.91902429   -9.94000000   0.00000000
C   -3.68926822   -9.23000000   0.00000000
C   -2.45951215   -9.94000000   0.00000000
C   -1.22975607   -9.23000000   0.00000000
C   -0.00000000   -9.94000000   0.00000000
C   1.22975607   -9.23000000   0.00000000
C   2.45951215   -9.94000000   0.00000000
C   3.68926822   -9.23000000   0.00000000
C   4.91902429   -9.94000000   0.00000000
C   6.14878037   -9.23000000   0.00000000
C   13.52731681   0.71000000   0.00000000
C   12.29756073   1.42000000   0.00000000
C   12.29756073   -1.42000000   0.00000000
C   13.52731681   -0.71000000   0.00000000
C   12.29756073   2.84000000   0.00000000
C   11.06780466   3.55000000   0.00000000
C   11.06780466   -3.55000000   0.00000000
C   12.29756073   -2.84000000   0.00000000
C   11.06780466   4.97000000   0.00000000
C   9.83804859   5.68000000   0.00000000
C   9.83804859   -5.68000000   0.00000000
C   11.06780466   -4.97000000   0.00000000
C   9.83804859   7.10000000   0.00000000
C   8.60829251   7.81000000   0.00000000
C   8.60829251   -7.81000000   0.00000000
C   9.83804859   -7.10000000   0.00000000
C   8.60829251   9.23000000   0.00000000
C   7.37853644   9.94000000   0.00000000
C   7.37853644   -9.94000000   0.00000000
C   8.60829251   -9.23000000   0.00000000
C   7.37853644   11.36000000   0.00000000
C   6.14878037   12.07000000   0.00000000
C   4.91902429   11.36000000   0.00000000
C   3.68926822   12.07000000   0.00000000
C   2.45951215   11.36000000   0.00000000
C   1.22975607   12.07000000   0.00000000
C   0.00000000   11.36000000   0.00000000
C   -1.22975607   12.07000000   0.00000000
C   -2.45951215   11.36000000   0.00000000
C   -3.68926822   12.07000000   0.00000000
C   -4.91902429   11.36000000   0.00000000
C   -6.14878037   12.07000000   0.00000000
C   -7.37853644   11.36000000   0.00000000
C   -7.37853644   9.94000000   0.00000000
C   -8.60829251   9.23000000   0.00000000
C   -8.60829251   7.81000000   0.00000000
C   -9.83804859   7.10000000   0.00000000
C   -9.83804859   5.68000000   0.00000000
C   -11.06780466   4.97000000   0.00000000
C   -11.06780466   3.55000000   0.00000000
C   -12.29756073   2.84000000   0.00000000
C   -12.29756073   1.42000000   0.00000000
C   -13.52731681   0.71000000   0.00000000
C   -13.52731681   -0.71000000   0.00000000
C   -12.29756073   -1.42000000   0.00000000
C   -12.29756073   -2.84000000   0.00000000
C   -11.06780466   -3.55000000   0.00000000
C   -11.06780466   -4.97000000   0.00000000
C   -9.83804859   -5.68000000   0.00000000
C   -9.83804859   -7.10000000   0.00000000
C   -8.60829251   -7.81000000   0.00000000
C   -8.60829251   -9.23000000   0.00000000
C   -7.37853644   -9.94000000   0.00000000
C   -7.37853644   -11.36000000   0.00000000
C   -6.14878037   -12.07000000   0.00000000
C   -4.91902429   -11.36000000   0.00000000
C   -3.68926822   -12.07000000   0.00000000
C   -2.45951215   -11.36000000   0.00000000
C   -1.22975607   -12.07000000   0.00000000
C   -0.00000000   -11.36000000   0.00000000
C   1.22975607   -12.07000000   0.00000000
C   2.45951215   -11.36000000   0.00000000
C   3.68926822   -12.07000000   0.00000000
C   4.91902429   -11.36000000   0.00000000
C   6.14878037   -12.07000000   0.00000000
C   7.37853644   -11.36000000   0.00000000
C   15.98682895   0.71000000   0.00000000
C   14.75707288   1.42000000   0.00000000
C   14.75707288   -1.42000000   0.00000000
C   15.98682895   -0.71000000   0.00000000
C   14.75707288   2.84000000   0.00000000
C   13.52731681   3.55000000   0.00000000
C   13.52731681   -3.55000000   0.00000000
C   14.75707288   -2.84000000   0.00000000
C   13.52731681   4.97000000   0.00000000
C   12.29756073   5.68000000   0.00000000
C   12.29756073   -5.68000000   0.00000000
C   13.52731681   -4.97000000   0.00000000
C   12.29756073   7.10000000   0.00000000
C   11.06780466   7.81000000   0.00000000
C   11.06780466   -7.81000000   0.00000000
C   12.29756073   -7.10000000   0.00000000
C   11.06780466   9.23000000   0.00000000
C   9.83804859   9.94000000   0.00000000
C   9.83804859   -9.94000000   0.00000000
C   11.06780466   -9.23000000   0.00000000
C   9.83804859   11.36000000   0.00000000
C   8.60829251   12.07000000   0.00000000
C   8.60829251   -12.07000000   0.00000000
C   9.83804859   -11.36000000   0.00000000
C   8.60829251   13.49000000   0.00000000
C   7.37853644   14.20000000   0.00000000
C   6.14878037   13.49000000   0.00000000
C   4.91902429   14.20000000   0.00000000
C   3.68926822   13.49000000   0.00000000
C   2.45951215   14.20000000   0.00000000
C   1.22975607   13.49000000   0.00000000
C   0.00000000   14.20000000   0.00000000
C   -1.22975607   13.49000000   0.00000000
C   -2.45951215   14.20000000   0.00000000
C   -3.68926822   13.49000000   0.00000000
C   -4.91902429   14.20000000   0.00000000
C   -6.14878037   13.49000000   0.00000000
C   -7.37853644   14.20000000   0.00000000
C   -8.60829251   13.49000000   0.00000000
C   -8.60829251   12.07000000   0.00000000
C   -9.83804859   11.36000000   0.00000000
C   -9.83804859   9.94000000   0.00000000
C   -11.06780466   9.23000000   0.00000000
C   -11.06780466   7.81000000   0.00000000
C   -12.29756073   7.10000000   0.00000000
C   -12.29756073   5.68000000   0.00000000
C   -13.52731681   4.97000000   0.00000000
C   -13.52731681   3.55000000   0.00000000
C   -14.75707288   2.84000000   0.00000000
C   -14.75707288   1.42000000   0.00000000
C   -15.98682895   0.71000000   0.00000000
C   -15.98682895   -0.71000000   0.00000000
C   -14.75707288   -1.42000000   0.00000000
C   -14.75707288   -2.84000000   0.00000000
C   -13.52731681   -3.55000000   0.00000000
C   -13.52731681   -4.97000000   0.00000000
C   -12.29756073   -5.68000000   0.00000000
C   -12.29756073   -7.10000000   0.00000000
C   -11.06780466   -7.81000000   0.00000000
C   -11.06780466   -9.23000000   0.00000000
C   -9.83804859   -9.94000000   0.00000000
C   -9.83804859   -11.36000000   0.00000000
C   -8.60829251   -12.07000000   0.00000000
C   -8.60829251   -13.49000000   0.00000000
C   -7.37853644   -14.20000000   0.00000000
C   -6.14878037   -13.49000000   0.00000000
C   -4.91902429   -14.20000000   0.00000000
C   -3.68926822   -13.49000000   0.00000000
C   -2.45951215   -14.20000000   0.00000000
C   -1.22975607   -13.49000000   0.00000000
C   -0.00000000   -14.20000000   0.00000000
C   1.22975607   -13.49000000   0.00000000
C   2.45951215   -14.20000000   0.00000000
C   3.68926822   -13.49000000   0.00000000
C   4.91902429   -14.20000000   0.00000000
C   6.14878037   -13.49000000   0.00000000
C   7.37853644   -14.20000000   0.00000000
C   8.60829251   -13.49000000   0.00000000
C   18.44634110   0.71000000   0.00000000
C   17.21658503   1.42000000   0.00000000
C   17.21658503   -1.42000000   0.00000000
C   18.44634110   -0.71000000   0.00000000
C   17.21658503   2.84000000   0.00000000
C   15.98682895   3.55000000   0.00000000
C   15.98682895   -3.55000000   0.00000000
C   17.21658503   -2.84000000   0.00000000
C   15.98682895   4.97000000   0.00000000
C   14.75707288   5.68000000   0.00000000
C   14.75707288   -5.68000000   0.00000000
C   15.98682895   -4.97000000   0.00000000
C   14.75707288   7.10000000   0.00000000
C   13.52731681   7.81000000   0.00000000
C   13.52731681   -7.81000000   0.00000000
C   14.75707288   -7.10000000   0.00000000
C   13.52731681   9.23000000   0.00000000
C   12.29756073   9.94000000   0.00000000
C   12.29756073   -9.94000000   0.00000000
C   13.52731681   -9.23000000   0.00000000
C   12.29756073   11.36000000   0.00000000
C   11.06780466   12.07000000   0.00000000
C   11.06780466   -12.07000000   0.00000000
C   12.29756073   -11.36000000   0.00000000
C   11.06780466   13.49000000   0.00000000
C   9.83804859   14.20000000   0.00000000
C   9.83804859   -14.20000000   0.00000000
C   11.06780466   -13.49000000   0.00000000
C   9.83804859   15.62000000   0.00000000
C   8.60829251   16.33000000   0.00000000
C   7.37853644   15.62000000   0.00000000
C   6.14878037   16.33000000   0.00000000
C   4.91902429   15.62000000   0.00000000
C   3.68926822   16.33000000   0.00000000
C   2.45951215   15.62000000   0.00000000
C   1.22975607   16.33000000   0.00000000
C   0.00000000   15.62000000   0.00000000
C   -1.22975607   16.33000000   0.00000000
C   -2.45951215   15.62000000   0.00000000
C   -3.68926822   16.33000000   0.00000000
C   -4.91902429   15.62000000   0.00000000
C   -6.14878037   16.33000000   0.00000000
C   -7.37853644   15.62000000   0.00000000
C   -8.60829251   16.33000000   0.00000000
C   -9.83804859   15.62000000   0.00000000
C   -9.83804859   14.20000000   0.00000000
C   -11.06780466   13.49000000   0.00000000
C   -11.06780466   12.07000000   0.00000000
C   -12.29756073   11.36000000   0.00000000
C   -12.29756073   9.94000000   0.00000000
C   -13.52731681   9.23000000   0.00000000
C   -13.52731681   7.81000000   0.00000000
C   -14.75707288   7.10000000   0.00000000
C   -14.75707288   5.68000000   0.00000000
C   -15.98682895   4.97000000   0.00000000
C   -15.98682895   3.55000000   0.00000000
C   -17.21658503   2.84000000   0.00000000
C   -17.21658503   1.42000000   0.00000000
C   -18.44634110   0.71000000   0.00000000
C   -18.44634110   -0.71000000   0.00000000
C   -17.21658503   -1.42000000   0.00000000
C   -17.21658503   -2.84000000   0.00000000
C   -15.98682895   -3.55000000   0.00000000
C   -15.98682895   -4.97000000   0.00000000
C   -14.75707288   -5.68000000   0.00000000
C   -14.75707288   -7.10000000   0.00000000
C   -13.52731681   -7.81000000   0.00000000
C   -13.52731681   -9.23000000   0.00000000
C   -12.29756073   -9.94000000   0.00000000
C   -12.29756073   -11.36000000   0.00000000
C   -11.06780466   -12.07000000   0.00000000
C   -11.06780466   -13.49000000   0.00000000
C   -9.83804859   -14.20000000   0.00000000
C   -9.83804859   -15.62000000   0.00000000
C   -8.60829251   -16.33000000   0.00000000
C   -7.37853644   -15.62000000   0.00000000
C   -6.14878037   -16.33000000   0.00000000
C   -4.91902429   -15.62000000   0.00000000
C   -3.68926822   -16.33000000   0.00000000
C   -2.45951215   -15.62000000   0.00000000
C   -1.22975607   -16.33000000   0.00000000
C   -0.00000000   -15.62000000   0.00000000
C   1.22975607   -16.33000000   0.00000000
C   2.45951215   -15.62000000   0.00000000
C   3.68926822   -16.33000000   0.00000000
C   4.91902429   -15.62000000   0.00000000
C   6.14878037   -16.33000000   0.00000000
C   7.37853644   -15.62000000   0.00000000
C   8.60829251   -16.33000000   0.00000000
C   9.83804859   -15.62000000   0.00000000
C   20.90585325   0.71000000   0.00000000
C   19.67609717   1.42000000   0.00000000
C   19.67609717   -1.42000000   0.00000000
C   20.90585325   -0.71000000   0.00000000
C   19.67609717   2.84000000   0.00000000
C   18.44634110   3.55000000   0.00000000
C   18.44634110   -3.55000000   0.00000000
C   19.67609717   -2.84000000   0.00000000
C   18.44634110   4.97000000   0.00000000
C   17.21658503   5.68000000   0.00000000
C   17.21658503   -5.68000000   0.00000000
C   18.44634110   -4.97000000   0.00000000
C   17.21658503   7.10000000   0.00000000
C   15.98682895   7.81000000   0.00000000
C   15.98682895   -7.81000000   0.00000000
C   17.21658503   -7.10000000   0.00000000
C   15.98682895   9.23000000   0.00000000
C   14.75707288   9.94000000   0.00000000
C   14.75707288   -9.94000000   0.00000000
C   15.98682895   -9.23000000   0.00000000
C   14.75707288   11.36000000   0.00000000
C   13.52731681   12.07000000   0.00000000
C   13.52731681   -12.07000000   0.00000000
C   14.75707288   -11.36000000   0.00000000
C   13.52731681   13.49000000   0.00000000
C   12.29756073   14.20000000   0.00000000
C   12.29756073   -14.20000000   0.00000000
C   13.52731681   -13.49000000   0.00000000
C   12.29756073   15.62000000   0.00000000
C   11.06780466   16.33000000   0.00000000
C   11.06780466   -16.33000000   0.00000000
C   12.29756073   -15.62000000   0.00000000
C   11.06780466   17.75000000   0.00000000
C   9.83804859   18.46000000   0.00000000
C   8.60829251   17.75000000   0.00000000
C   7.37853644   18.46000000   0.00000000
C   6.14878037   17.75000000   0.00000000
C   4.91902429   18.46000000   0.00000000
C   3.68926822   17.75000000   0.00000000
C   2.45951215   18.46000000   0.00000000
C   1.22975607   17.75000000   0.00000000
C   0.00000000   18.46000000   0.00000000
C   -1.22975607   17.75000000   0.00000000
C   -2.45951215   18.46000000   0.00000000
C   -3.68926822   17.75000000   0.00000000
C   -4.91902429   18.46000000   0.00000000
C   -6.14878037   17.75000000   0.00000000
C   -7.37853644   18.46000000   0.00000000
C   -8.60829251   17.75000000   0.00000000
C   -9.83804859   18.46000000   0.00000000
C   -11.06780466   17.75000000   0.00000000
C   -11.06780466   16.33000000   0.00000000
C   -12.29756073   15.62000000   0.00000000
C   -12.29756073   14.20000000   0.00000000
C   -13.52731681   13.49000000   0.00000000
C   -13.52731681   12.07000000   0.00000000
C   -14.75707288   11.36000000   0.00000000
C   -14.75707288   9.94000000   0.00000000
C   -15.98682895   9.23000000   0.00000000
C   -15.98682895   7.81000000   0.00000000
C   -17.21658503   7.10000000   0.00000000
C   -17.21658503   5.68000000   0.00000000
C   -18.44634110   4.97000000   0.00000000
C   -18.44634110   3.55000000   0.00000000
C   -19.67609717   2.84000000   0.00000000
C   -19.67609717   1.42000000   0.00000000
C   -20.90585325   0.71000000   0.00000000
C   -20.90585325   -0.71000000   0.00000000
C   -19.67609717   -1.42000000   0.00000000
C   -19.67609717   -2.84000000   0.00000000
C   -18.44634110   -3.55000000   0.00000000
C   -18.44634110   -4.97000000   0.00000000
C   -17.21658503   -5.68000000   0.00000000
C   -17.21658503   -7.10000000   0.00000000
C   -15.98682895   -7.81000000   0.00000000
C   -15.98682895   -9.23000000   0.00000000
C   -14.75707288   -9.94000000   0.00000000
C   -14.75707288   -11.36000000   0.00000000
C   -13.52731681   -12.07000000   0.00000000
C   -13.52731681   -13.49000000   0.00000000
C   -12.29756073   -14.20000000   0.00000000
C   -12.29756073   -15.62000000   0.00000000
C   -11.06780466   -16.33000000   0.00000000
C   -11.06780466   -17.75000000   0.00000000
C   -9.83804859   -18.46000000   0.00000000
C   -8.60829251   -17.75000000   0.00000000
C   -7.37853644   -18.46000000   0.00000000
C   -6.14878037   -17.75000000   0.00000000
C   -4.91902429   -18.46000000   0.00000000
C   -3.68926822   -17.75000000   0.00000000
C   -2.45951215   -18.46000000   0.00000000
C   -1.22975607   -17.75000000   0.00000000
C   -0.00000000   -18.46000000   0.00000000
C   1.22975607   -17.75000000   0.00000000
C   2.45951215   -18.46000000   0.00000000
C   3.68926822   -17.75000000   0.00000000
C   4.91902429   -18.46000000   0.00000000
C   6.14878037   -17.75000000   0.00000000
C   7.37853644   -18.46000000   0.00000000
C   8.60829251   -17.75000000   0.00000000
C   9.83804859   -18.46000000   0.00000000
C   11.06780466   -17.75000000   0.00000000
C   23.36536539   0.71000000   0.00000000
C   22.13560932   1.42000000   0.00000000
C   22.13560932   -1.42000000   0.00000000
C   23.36536539   -0.71000000   0.00000000
C   22.13560932   2.84000000   0.00000000
C   20.90585325   3.55000000   0.00000000
C   20.90585325   -3.55000000   0.00000000
C   22.13560932   -2.84000000   0.00000000
C   20.90585325   4.97000000   0.00000000
C   19.67609717   5.68000000   0.00000000
C   19.67609717   -5.68000000   0.00000000
C   20.90585325   -4.97000000   0.00000000
C   19.67609717   7.10000000   0.00000000
C   18.44634110   7.81000000   0.00000000
C   18.44634110   -7.81000000   0.00000000
C   19.67609717   -7.10000000   0.00000000
C   18.44634110   9.23000000   0.00000000
C   17.21658503   9.94000000   0.00000000
C   17.21658503   -9.94000000   0.00000000
C   18.44634110   -9.23000000   0.00000000
C   17.21658503   11.36000000   0.00000000
C   15.98682895   12.07000000   0.00000000
C   15.98682895   -12.07000000   0.00000000
C   17.21658503   -11.36000000   0.00000000
C   15.98682895   13.49000000   0.00000000
C   14.75707288   14.20000000   0.00000000
C   14.75707288   -14.20000000   0.00000000
C   15.98682895   -13.49000000   0.00000000
C   14.75707288   15.62000000   0.00000000
C   13.52731681   16.33000000   0.00000000
C   13.52731681   -16.33000000   0.00000000
C   14.75707288   -15.62000000   0.00000000
C   13.52731681   17.75000000   0.00000000
C   12.29756073   18.46000000   0.00000000
C   12.29756073   -18.46000000   0.00000000
C   13.52731681   -17.75000000   0.00000000
C   12.29756073   19.88000000   0.00000000
C   11.06780466   20.59000000   0.00000000
C   9.83804859   19.88000000   0.00000000
C   8.60829251   20.59000000   0.00000000
C   7.37853644   19.88000000   0.00000000
C   6.14878037   20.59000000   0.00000000
C   4.91902429   19.88000000   0.00000000
C   3.68926822   20.59000000   0.00000000
C   2.45951215   19.88000000   0.00000000
C   1.22975607   20.59000000   0.00000000
C   0.00000000   19.88000000   0.00000000
C   -1.22975607   20.59000000   0.00000000
C   -2.45951215   19.88000000   0.00000000
C   -3.68926822   20.59000000   0.00000000
C   -4.91902429   19.88000000   0.00000000
C   -6.14878037   20.59000000   0.00000000
C   -7.37853644   19.88000000   0.00000000
C   -8.60829251   20.59000000   0.00000000
C   -9.83804859   19.88000000   0.00000000
C   -11.06780466   20.59000000   0.00000000
C   -12.29756073   19.88000000   0.00000000
C   -12.29756073   18.46000000   0.00000000
C   -13.52731681   17.75000000   0.00000000
C   -13.52731681   16.33000000   0.00000000
C   -14.75707288   15.62000000   0.00000000
C   -14.75707288   14.20000000   0.00000000
C   -15.98682895   13.49000000   0.00000000
C   -15.98682895   12.07000000   0.00000000
C   -17.21658503   11.36000000   0.00000000
C   -17.21658503   9.94000000   0.00000000
C   -18.44634110   9.23000000   0.00000000
C   -18.44634110   7.81000000   0.00000000
C   -19.67609717   7.10000000   0.00000000
C   -19.67609717   5.68000000   0.00000000
C   -20.90585325   4.97000000   0.00000000
C   -20.90585325   3.55000000   0.00000000
C   -22.13560932   2.84000000   0.00000000
C   -22.13560932   1.42000000   0.00000000
C   -23.36536539   0.71000000   0.00000000
C   -23.36536539   -0.71000000   0.00000000
C   -22.13560932   -1.42000000   0.00000000
C   -22.13560932   -2.84000000   0.00000000
C   -20.90585325   -3.55000000   0.00000000
C   -20.90585325   -4.97000000   0.00000000
C   -19.67609717   -5.68000000   0.00000000
C   -19.67609717   -7.10000000   0.00000000
C   -18.44634110   -7.81000000   0.00000000
C   -18.44634110   -9.23000000   0.00000000
C   -17.21658503   -9.94000000   0.00000000
C   -17.21658503   -11.36000000   0.00000000
C   -15.98682895   -12.07000000   0.00000000
C   -15.98682895   -13.49000000   0.00000000
C   -14.75707288   -14.20000000   0.00000000
C   -14.75707288   -15.62000000   0.00000000
C   -13.52731681   -16.33000000   0.00000000
C   -13.52731681   -17.75000000   0.00000000
C   -12.29756073   -18.46000000   0.00000000
C   -12.29756073   -19.88000000   0.00000000
C   -11.06780466   -20.59000000   0.00000000
C   -9.83804859   -19.88000000   0.00000000
C   -8.60829251   -20.59000000   0.00000000
C   -7.37853644   -19.88000000   0.00000000
C   -6.14878037   -20.59000000   0.00000000
C   -4.91902429   -19.88000000   0.00000000
C   -3.68926822   -20.59000000   0.00000000
C   -2.45951215   -19.88000000   0.00000000
C   -1.22975607   -20.59000000   0.00000000
C   -0.00000000   -19.88000000   0.00000000
C   1.22975607   -20.59000000   0.00000000
C   2.45951215   -19.88000000   0.00000000
C   3.68926822   -20.59000000   0.00000000
C   4.91902429   -19.88000000   0.00000000
C   6.14878037   -20.59000000   0.00000000
C   7.37853644   -19.88000000   0.00000000
C   8.60829251   -20.59000000   0.00000000
C   9.83804859   -19.88000000   0.00000000
C   11.06780466   -20.59000000   0.00000000
C   12.29756073   -19.88000000   0.00000000
H   24.30846706   1.25450000   0.00000000
H   24.30846706   -1.25450000   0.00000000
H   23.07871099   3.38450000   0.00000000
H   23.07871099   -3.38450000   0.00000000
H   21.84895491   5.51450000   0.00000000
H   21.84895491   -5.51450000   0.00000000
H   20.61919884   7.64450000   0.00000000
H   20.61919884   -7.64450000   0.00000000
H   19.38944277   9.77450000   0.00000000
H   19.38944277   -9.77450000   0.00000000
H   18.15968669   11.90450000   0.00000000
H   18.15968669   -11.90450000   0.00000000
H   16.92993062   14.03450000   0.00000000
H   16.92993062   -14.03450000   0.00000000
H   15.70017455   16.16450000   0.00000000
H   15.70017455   -16.16450000   0.00000000
H   14.47041847   18.29450000   0.00000000
H   14.47041847   -18.29450000   0.00000000
H   13.24066240   20.42450000   0.00000000
H   11.06780466   21.67900000   0.00000000
H   8.60829251   21.67900000   0.00000000
H   6.14878037   21.67900000   0.00000000
H   3.68926822   21.67900000   0.00000000
H   1.22975607   21.67900000   0.00000000
H   -1.22975607   21.67900000   0.00000000
H   -3.68926822   21.67900000   0.00000000
H   -6.14878037   21.67900000   0.00000000
H   -8.60829251   21.67900000   0.00000000
H   -11.06780466   21.67900000   0.00000000
H   -13.24066240   20.42450000   0.00000000
H   -14.47041847   18.29450000   0.00000000
H   -15.70017455   16.16450000   0.00000000
H   -16.92993062   14.03450000   0.00000000
H   -18.15968669   11.90450000   0.00000000
H   -19.38944277   9.77450000   0.00000000
H   -20.61919884   7.64450000   0.00000000
H   -21.84895491   5.51450000   0.00000000
H   -23.07871099   3.38450000   0.00000000
H   -24.30846706   1.25450000   0.00000000
H   -24.30846706   -1.25450000   0.00000000
H   -23.07871099   -3.38450000   0.00000000
H   -21.84895491   -5.51450000   0.00000000
H   -20.61919884   -7.64450000   0.00000000
H   -19.38944277   -9.77450000   0.00000000
H   -18.15968669   -11.90450000   0.00000000
H   -16.92993062   -14.03450000   0.00000000
H   -15.70017455   -16.16450000   0.00000000
H   -14.47041847   -18.29450000   0.00000000
H   -13.24066240   -20.42450000   0.00000000
H   -11.06780466   -21.67900000   0.00000000
H   -8.60829251   -21.67900000   0.00000000
H   -6.14878037   -21.67900000   0.00000000
H   -3.68926822   -21.67900000   0.00000000
H   -1.22975607   -21.67900000   0.00000000
H   1.22975607   -21.67900000   0.00000000
H   3.68926822   -21.67900000   0.00000000
H   6.14878037   -21.67900000   0.00000000
H   8.60829251   -21.67900000   0.00000000
H   11.06780466   -21.67900000   0.00000000
H   13.24066240   -20.42450000   0.00000000
