42

C	 0.       -1.574024  2.5     
C	 0.       -0.118949  2.5     
N	 0.        1.029433  2.5     
H	 0.       -1.949399  3.521939
H	-0.885025 -1.949399  1.989031
H	 0.885025 -1.949399  1.989031
C   1.22975607   0.71000000   0.00000000
C   0.00000000   1.42000000   0.00000000
C   -1.22975607   0.71000000   0.00000000
C   -1.22975607   -0.71000000   0.00000000
C   -0.00000000   -1.42000000   0.00000000
C   1.22975607   -0.71000000   0.00000000
C   3.68926822   0.71000000   0.00000000
C   2.45951215   1.42000000   0.00000000
C   2.45951215   -1.42000000   0.00000000
C   3.68926822   -0.71000000   0.00000000
C   2.45951215   2.84000000   0.00000000
C   1.22975607   3.55000000   0.00000000
C   0.00000000   2.84000000   0.00000000
C   -1.22975607   3.55000000   0.00000000
C   -2.45951215   2.84000000   0.00000000
C   -2.45951215   1.42000000   0.00000000
C   -3.68926822   0.71000000   0.00000000
C   -3.68926822   -0.71000000   0.00000000
C   -2.45951215   -1.42000000   0.00000000
C   -2.45951215   -2.84000000   0.00000000
C   -1.22975607   -3.55000000   0.00000000
C   -0.00000000   -2.84000000   0.00000000
C   1.22975607   -3.55000000   0.00000000
C   2.45951215   -2.84000000   0.00000000
H   4.63236988   1.25450000   0.00000000
H   4.63236988   -1.25450000   0.00000000
H   3.40261381   3.38450000   0.00000000
H   1.22975607   4.63900000   0.00000000
H   -1.22975607   4.63900000   0.00000000
H   -3.40261381   3.38450000   0.00000000
H   -4.63236988   1.25450000   0.00000000
H   -4.63236988   -1.25450000   0.00000000
H   -3.40261381   -3.38450000   0.00000000
H   -1.22975607   -4.63900000   0.00000000
H   1.22975607   -4.63900000   0.00000000
H   3.40261381   -3.38450000   0.00000000
