45

C	-1.127058362227 -1.691183051649  2.5           
C	 0.196181989128 -0.954524833684  2.5           
O	 1.242224506489 -1.924648569997  2.5           
H	 2.08889499111  -1.472754063785  2.5           
H	-1.956688927375 -0.984130498859  2.5           
H	-1.211881286352 -2.323946808733  1.617116      
H	-1.211881286352 -2.323946808733  3.382884      
H	 0.26950966658  -0.311894045591  1.61572       
H	 0.26950966658  -0.311894045591  3.38428       
C   1.22975607   0.71000000   0.00000000
C   0.00000000   1.42000000   0.00000000
C   -1.22975607   0.71000000   0.00000000
C   -1.22975607   -0.71000000   0.00000000
C   -0.00000000   -1.42000000   0.00000000
C   1.22975607   -0.71000000   0.00000000
C   3.68926822   0.71000000   0.00000000
C   2.45951215   1.42000000   0.00000000
C   2.45951215   -1.42000000   0.00000000
C   3.68926822   -0.71000000   0.00000000
C   2.45951215   2.84000000   0.00000000
C   1.22975607   3.55000000   0.00000000
C   0.00000000   2.84000000   0.00000000
C   -1.22975607   3.55000000   0.00000000
C   -2.45951215   2.84000000   0.00000000
C   -2.45951215   1.42000000   0.00000000
C   -3.68926822   0.71000000   0.00000000
C   -3.68926822   -0.71000000   0.00000000
C   -2.45951215   -1.42000000   0.00000000
C   -2.45951215   -2.84000000   0.00000000
C   -1.22975607   -3.55000000   0.00000000
C   -0.00000000   -2.84000000   0.00000000
C   1.22975607   -3.55000000   0.00000000
C   2.45951215   -2.84000000   0.00000000
H   4.63236988   1.25450000   0.00000000
H   4.63236988   -1.25450000   0.00000000
H   3.40261381   3.38450000   0.00000000
H   1.22975607   4.63900000   0.00000000
H   -1.22975607   4.63900000   0.00000000
H   -3.40261381   3.38450000   0.00000000
H   -4.63236988   1.25450000   0.00000000
H   -4.63236988   -1.25450000   0.00000000
H   -3.40261381   -3.38450000   0.00000000
H   -1.22975607   -4.63900000   0.00000000
H   1.22975607   -4.63900000   0.00000000
H   3.40261381   -3.38450000   0.00000000
