51

C	 0.        0.010232  2.495791
C	 1.196899 -0.706396  2.492793
C	 1.199776 -2.095946  2.492793
C	 0.       -2.796943  2.494086
C	-1.199776 -2.095946  2.492793
C	-1.196899 -0.706396  2.492793
C	 0.        1.515658  2.527425
H	 2.137452 -0.169662  2.487641
H	 2.139982 -2.631122  2.488304
H	 0.       -3.878371  2.49151 
H	-2.139982 -2.631122  2.488304
H	-2.137452 -0.169662  2.487641
H	 0.        1.886288  3.555803
H	 0.882584  1.924029  2.034974
H	-0.882584  1.924029  2.034974
C   1.22975607   0.71000000   0.00000000
C   0.00000000   1.42000000   0.00000000
C   -1.22975607   0.71000000   0.00000000
C   -1.22975607   -0.71000000   0.00000000
C   -0.00000000   -1.42000000   0.00000000
C   1.22975607   -0.71000000   0.00000000
C   3.68926822   0.71000000   0.00000000
C   2.45951215   1.42000000   0.00000000
C   2.45951215   -1.42000000   0.00000000
C   3.68926822   -0.71000000   0.00000000
C   2.45951215   2.84000000   0.00000000
C   1.22975607   3.55000000   0.00000000
C   0.00000000   2.84000000   0.00000000
C   -1.22975607   3.55000000   0.00000000
C   -2.45951215   2.84000000   0.00000000
C   -2.45951215   1.42000000   0.00000000
C   -3.68926822   0.71000000   0.00000000
C   -3.68926822   -0.71000000   0.00000000
C   -2.45951215   -1.42000000   0.00000000
C   -2.45951215   -2.84000000   0.00000000
C   -1.22975607   -3.55000000   0.00000000
C   -0.00000000   -2.84000000   0.00000000
C   1.22975607   -3.55000000   0.00000000
C   2.45951215   -2.84000000   0.00000000
H   4.63236988   1.25450000   0.00000000
H   4.63236988   -1.25450000   0.00000000
H   3.40261381   3.38450000   0.00000000
H   1.22975607   4.63900000   0.00000000
H   -1.22975607   4.63900000   0.00000000
H   -3.40261381   3.38450000   0.00000000
H   -4.63236988   1.25450000   0.00000000
H   -4.63236988   -1.25450000   0.00000000
H   -3.40261381   -3.38450000   0.00000000
H   -1.22975607   -4.63900000   0.00000000
H   1.22975607   -4.63900000   0.00000000
H   3.40261381   -3.38450000   0.00000000
